"AusCOM_CMIP5"
0001 01 01 0 0 0
## output files
#"HISTORY/ocean_daily",                24,  "hours",  1, "days", "time",
"HISTORY/ocean_month",                 1,  "months", 1, "days", "time",
"HISTORY/ocean_scalar",                1,  "months", 1, "days", "time"
#
#===========================
# OCEAN DIAGNOSTICS (MOM4p1)
#===========================
#
#==========================================================================
# WGOMD/CMIP5 Table 2.1 and related GFDL fields
# all of these fields are time independent 
#
# Rosetta stone: ht=sea_floor_depth_below_geoid
 "ocean_model","ht","ht"   ,"HISTORY/ocean_month","all",.false.,"none",2
 "ocean_model","hu","hu"   ,"HISTORY/ocean_month","all",.false.,"none",2
#
# geographical longitude and latitude of corner and tracer points (ocean_month)
 "ocean_model","geolat_c","geolat_c"  ,"HISTORY/ocean_month","all",.false.,"none",2
 "ocean_model","geolon_c","geolon_c"  ,"HISTORY/ocean_month","all",.false.,"none",2
 "ocean_model","geolat_t","geolat_t"  ,"HISTORY/ocean_month","all",.false.,"none",2
 "ocean_model","geolon_t","geolon_t"  ,"HISTORY/ocean_month","all",.false.,"none",2
#
# geographical longitude and latitude of corner and tracer points (ocean_daily)
# "ocean_model","geolat_c","geolat_c","HISTORY/ocean_daily","all",.false.,"none",2
# "ocean_model","geolon_c","geolon_c","HISTORY/ocean_daily","all",.false.,"none",2
# "ocean_model","geolat_t","geolat_t","HISTORY/ocean_daily","all",.false.,"none",2
# "ocean_model","geolon_t","geolon_t","HISTORY/ocean_daily","all",.false.,"none",2
#
# horizontal area of tracer and velocity grid cells
 "ocean_model","area_t","area_t" ,"HISTORY/ocean_month","all",.false.,"none",2
 "ocean_model","area_u","area_u" ,"HISTORY/ocean_month","all",.false.,"none",2
#
# number of vertical grid cells in tracer and velocity cells
 "ocean_model","kmt","kmt"  ,"HISTORY/ocean_month","all",.false.,"none",2
 "ocean_model","kmu","kmu"  ,"HISTORY/ocean_month","all",.false.,"none",2
#
#
#==========================================================================
# WGOMD/CMIP5 Table 2.2
# all of these fields are time dependent 
#
# Rosetta stone: total_mass_seawater=sea_water_mass 
 "ocean_model","total_mass_seawater","total_mass_seawater" ,"HISTORY/ocean_scalar","all",.true.,"none",2
#
# Rosetta stone: pbot_t=sea_water_pressure_at_sea_floor 
 "ocean_model","pbot_t","pbot_t" ,"HISTORY/ocean_month","all",.true.,"none",2
#
# Rosetta stone: patm_t=sea_water_pressure_at_sea_water_surface 
 "ocean_model","patm_t","patm_t" ,"HISTORY/ocean_month","all",.true.,"none",2
#
# Rosetta stone: total_volume_seawater=sea_water_volume 
 "ocean_model","total_volume_seawater","total_volume_seawater" ,"HISTORY/ocean_scalar","all",.true.,"none",2
#
# Rosetta stone: sea_level=sea_surface_height_above_geoid 
 "ocean_model","sea_level","sea_level" ,"HISTORY/ocean_month","all",.true.,"none",2
#
# Rosetta stone: sea_level_sq=squared_square_of_sea_surface_height_above_geoid 
 "ocean_model","sea_level_sq","sea_level_sq" ,"HISTORY/ocean_month","all",.true.,"none",2
#
# Rosetta stone: eta_global is required to get global_average_sea_level_change
# since the CM2M simulations use a Boussinesq ocean model.  
# global_average_sea_level_change = eta_global + global_average_steric_sea_level_change
 "ocean_model","eta_global","eta_global" ,"HISTORY/ocean_scalar","all",.true.,"none",2
#
# Rosetta stone: eta_adjust=global_average_steric_sea_level_change
# Also, can check that this eta_ajust is approximately equal to the same
# diagnostic computed using time averaged rho and grid cell volume, as well
# as the global averaged density.  pbot_adjust is useful to adjust the
# bottom pressure for spurious mass sources in Boussinesq fluids. 
 "ocean_model","eta_adjust","eta_adjust" ,"HISTORY/ocean_scalar","all",.true.,"none",2
 "ocean_model","rhobarz_global","rhobarz_global"  ,"HISTORY/ocean_scalar","all",.true.,"none",2
 "ocean_model","rho","rho" ,"HISTORY/ocean_month","all",.true.,"none",2
 "ocean_model","pbot_adjust","pbot_adjust" ,"HISTORY/ocean_scalar","all",.true.,"none",2
#
# Rosetta stone: rho_dzt=sea_water_mass_per_unit_area
 "ocean_model","rho_dzt","rho_dzt" ,"HISTORY/ocean_month","all",.true.,"none",2
#
# Rosetta stone: dht=cell_thickness
 "ocean_model","dzt","dht" ,"HISTORY/ocean_month","all",.true.,"none",2
#
# Rosetta stone: temp=sea_water_potential_temperature
 "ocean_model","pot_temp","pot_temp" ,"HISTORY/ocean_month","all",.true.,"none",2
#
# Rosetta stone: temp_global_ave=sea_water_potential_temperature (global ave)
"ocean_model","temp_global_ave","temp_global_ave" ,"HISTORY/ocean_scalar","all",.true.,"none",2
#
# Rosetta stone: sst=sea_surface_temperature (monthly)
 "ocean_model","surface_temp","sst"  ,"HISTORY/ocean_month","all",.true.,"none",2
#
# Rosetta stone: sst=sea_surface_temperature  (daily)
# "ocean_model","surface_temp","sst"  ,"HISTORY/ocean_daily","all",.true.,"none",2
#
# Rosetta stone: sst_sq=square_of_sea_surface_temperature (monthly)
 "ocean_model","squared_surface_temp","sst_sq"  ,"HISTORY/ocean_month","all",.true.,"none",2
#
# Rosetta stone: sst_sq=square_of_sea_surface_temperature (daily)
# "ocean_model","squared_surface_temp","sst_sq"  ,"HISTORY/ocean_daily","all",.true.,"none",2
#
# Rosetta stone: salt=sea_water_salinity
 "ocean_model","salt","salt" ,"HISTORY/ocean_month","all",.true.,"none",2
#
# Rosetta stone: salt_global_ave=sea_water_salinity (global ave)
"ocean_model","salt_global_ave","salt_global_ave" ,"HISTORY/ocean_scalar","all",.true.,"none",2
#
# Rosetta stone: surface_salt=sea_surface_salinity
 "ocean_model","surface_salt","sss" ,"HISTORY/ocean_month","all",.true.,"none",2
#
# Rosetta stone: pot_rho_0=sea_water_potential_density 
 "ocean_model","pot_rho_0","pot_rho_0" ,"HISTORY/ocean_month","all",.true.,"none",2
#
# Rosetta stone: age_global=sea_water_age_since_surface_contact
 "ocean_model","age_global","age_global" ,"HISTORY/ocean_month","all",.true.,"none",2
#
# Rosetta stone: cfc_11=moles_per_unit_mass_of_cfc11_in_sea_water
 "ocean_model","cfc_11","cfc_11" ,"HISTORY/ocean_month","all",.true.,"none",2
#
# Rosetta stone: psiu=ocean_barotropic_mass_streamfunction
 "ocean_model","psiu","psiu" ,"HISTORY/ocean_month","all",.true.,"none",2
#
# Rosetta stone: mld=ocean_mixed_layer_thickness_defined_by_sigma_t
 "ocean_model","mld","mld" ,"HISTORY/ocean_month","all",.true.,"none",2
#
# Rosetta stone: mld_sq=square_of_ocean_mixed_layer_thickness_defined_by_sigma_t
 "ocean_model","mld_sq","mld_sq" ,"HISTORY/ocean_month","all",.true.,"none",2
#
# Rosetta stone: hblt=ocean_mixed_layer_thickness_defined_by_mixing_scheme (daily max)
# "ocean_model","hblt","hblt_max" ,"HISTORY/ocean_daily","all",  max ,"none",2
#
# Rosetta stone: hblt=ocean_mixed_layer_thickness_defined_by_mixing_scheme (monthly max)
 "ocean_model","hblt","hblt_max" ,"HISTORY/ocean_month","all",   max,"none",2
#
#==========================================================================
# WGOMD/CMIP5 Table 2.3
# all of these fields are time dependent 
#
# Rosetta stone: u=sea_water_x_velocity
 "ocean_model","u","u"                       ,"HISTORY/ocean_month","all",.true.,"none",2
#
# Rosetta stone: v=sea_water_y_velocity
 "ocean_model","v","v"                       ,"HISTORY/ocean_month","all",.true.,"none",2
#
# Rosetta stone: tz_trans=upward_ocean_mass_transport
 "ocean_model","tz_trans","tz_trans" ,"HISTORY/ocean_month","all",.true.,"none",2
#
# Rosetta stone: tz_trans_sq=square_of_upward_ocean_mass_transport
 "ocean_model","tz_trans_sq","tz_trans_sq" ,"HISTORY/ocean_month","all",.true.,"none",2
#
# Rosetta stone: tx_trans=ocean_x_mass_transport
 "ocean_model","tx_trans","tx_trans" ,"HISTORY/ocean_month","all",.true.,"none",2
#
# Rosetta stone: ty_trans=ocean_y_mass_transport
 "ocean_model","ty_trans","ty_trans" ,"HISTORY/ocean_month","all",.true.,"none",2
#
# Rosetta stone: ocean_meridional_overturning_mass_streamfunction
#                ocean_y_overturning_mass_streamfunction
#                ocean_meridional_overturning_mass_streamfunction_due_to_bolus_advection
#                ocean_y_overturning_mass_streamfunction_due_to_bolus_advection
# are derived from the following fields 
 "ocean_model","tx_trans_rho","tx_trans_rho"         ,"HISTORY/ocean_month","all",.true.,"none",2
 "ocean_model","ty_trans_rho","ty_trans_rho"         ,"HISTORY/ocean_month","all",.true.,"none",2
 "ocean_model","tx_trans_gm","tx_trans_gm"           ,"HISTORY/ocean_month","all",.true.,"none",2
 "ocean_model","ty_trans_gm","ty_trans_gm"           ,"HISTORY/ocean_month","all",.true.,"none",2
 "ocean_model","tx_trans_rho_gm","tx_trans_rho_gm"   ,"HISTORY/ocean_month","all",.true.,"none",2
 "ocean_model","ty_trans_rho_gm","ty_trans_rho_gm"   ,"HISTORY/ocean_month","all",.true.,"none",2
 "ocean_model","tx_trans_submeso","tx_trans_submeso" ,"HISTORY/ocean_month","all",.true.,"none",2
 "ocean_model","ty_trans_submeso","ty_trans_submeso" ,"HISTORY/ocean_month","all",.true.,"none",2
#
# Rosetta stone: northward_ocean_heat_transport
#                ocean_heat_x_transport
#                ocean_heat_y_transport
#                northward_ocean_heat_transport_due_to_bolus_advection
#                northward_ocean_heat_transport_due_to_diffusion
#                ocean_heat_x_transport_due_to_bolus_advection
#                ocean_heat_x_transport_due_to_diffusion
#                ocean_heat_y_transport_due_to_bolus_advection
#                ocean_heat_y_transport_due_to_diffusion
# are derived from the following fields 
 "ocean_model","temp_adv_flux_x_int_z","temp_adv_flux_x_int_z"        ,"HISTORY/ocean_month","all",.true.,"none",2
 "ocean_model","temp_adv_flux_y_int_z","temp_adv_flux_y_int_z"        ,"HISTORY/ocean_month","all",.true.,"none",2
 "ocean_model","temp_xflux_neutral_int_z","temp_xflux_neutral_int_z"  ,"HISTORY/ocean_month","all",.true.,"none",2
 "ocean_model","temp_yflux_neutral_int_z","temp_yflux_neutral_int_z"  ,"HISTORY/ocean_month","all",.true.,"none",2
 "ocean_model","temp_xflux_ndiffuse_int_z","temp_xflux_ndiffuse_int_z" ,"HISTORY/ocean_month","all",.true.,"none",2
 "ocean_model","temp_yflux_ndiffuse_int_z","temp_yflux_ndiffuse_int_z" ,"HISTORY/ocean_month","all",.true.,"none",2
 "ocean_model","temp_xflux_gm_modes_int_z","temp_xflux_gm_modes_int_z" ,"HISTORY/ocean_month","all",.true.,"none",2
 "ocean_model","temp_yflux_gm_modes_int_z","temp_yflux_gm_modes_int_z" ,"HISTORY/ocean_month","all",.true.,"none",2
 "ocean_model","temp_sigma_diff_xflux_int_z","temp_xflux_sigma"       ,"HISTORY/ocean_month","all",.true.,"none",2
 "ocean_model","temp_sigma_diff_yflux_int_z","temp_yflux_sigma"       ,"HISTORY/ocean_month","all",.true.,"none",2
 "ocean_model","temp_yflux_submeso_int_z","temp_yflux_submeso_int_z"  ,"HISTORY/ocean_month","all",.true.,"none",2
 "ocean_model","temp_xflux_submeso_int_z","temp_xflux_submeso_int_z"  ,"HISTORY/ocean_month","all",.true.,"none",2
#
#
# Rosetta stone: northward_ocean_heat_transport_due_to_gyre
#                northward_ocean_heat_transport_due_to_overturning
#                northward_ocean_salt_transport_due_to_gyre
#                northward_ocean_heat_transport_due_to_overturning
# for the resolved advective transport are derived from the following fields 
 "ocean_model","temp_merid_flux_advect_global","temp_merid_flux_advect_global"  ,"HISTORY/ocean_month","all",.true.,"none",2
 "ocean_model","temp_merid_flux_over_global","temp_merid_flux_over_global"      ,"HISTORY/ocean_month","all",.true.,"none",2
 "ocean_model","temp_merid_flux_gyre_global","temp_merid_flux_gyre_global"      ,"HISTORY/ocean_month","all",.true.,"none",2
 "ocean_model","salt_merid_flux_advect_global","salt_merid_flux_advect_global"  ,"HISTORY/ocean_month","all",.true.,"none",2
 "ocean_model","salt_merid_flux_over_global","salt_merid_flux_over_global"      ,"HISTORY/ocean_month","all",.true.,"none",2
 "ocean_model","salt_merid_flux_gyre_global","salt_merid_flux_gyre_global"      ,"HISTORY/ocean_month","all",.true.,"none",2
#
 "ocean_model","temp_merid_flux_advect_southern","temp_merid_flux_advect_southern"  ,"HISTORY/ocean_month","all",.true.,"none",2
 "ocean_model","temp_merid_flux_over_southern","temp_merid_flux_over_southern"      ,"HISTORY/ocean_month","all",.true.,"none",2
 "ocean_model","temp_merid_flux_gyre_southern","temp_merid_flux_gyre_southern"      ,"HISTORY/ocean_month","all",.true.,"none",2
 "ocean_model","salt_merid_flux_advect_southern","salt_merid_flux_advect_southern"  ,"HISTORY/ocean_month","all",.true.,"none",2
 "ocean_model","salt_merid_flux_over_southern","salt_merid_flux_over_southern"      ,"HISTORY/ocean_month","all",.true.,"none",2
 "ocean_model","salt_merid_flux_gyre_southern","salt_merid_flux_gyre_southern"      ,"HISTORY/ocean_month","all",.true.,"none",2
#
 "ocean_model","temp_merid_flux_advect_atlantic","temp_merid_flux_advect_atlantic"  ,"HISTORY/ocean_month","all",.true.,"none",2
 "ocean_model","temp_merid_flux_over_atlantic","temp_merid_flux_over_atlantic"      ,"HISTORY/ocean_month","all",.true.,"none",2
 "ocean_model","temp_merid_flux_gyre_atlantic","temp_merid_flux_gyre_atlantic"      ,"HISTORY/ocean_month","all",.true.,"none",2
 "ocean_model","salt_merid_flux_advect_atlantic","salt_merid_flux_advect_atlantic"  ,"HISTORY/ocean_month","all",.true.,"none",2
 "ocean_model","salt_merid_flux_over_atlantic","salt_merid_flux_over_atlantic"      ,"HISTORY/ocean_month","all",.true.,"none",2
 "ocean_model","salt_merid_flux_gyre_atlantic","salt_merid_flux_gyre_atlantic"      ,"HISTORY/ocean_month","all",.true.,"none",2
# 
 "ocean_model","temp_merid_flux_advect_pacific","temp_merid_flux_advect_pacific"  ,"HISTORY/ocean_month","all",.true.,"none",2
 "ocean_model","temp_merid_flux_over_pacific","temp_merid_flux_over_pacific"      ,"HISTORY/ocean_month","all",.true.,"none",2
 "ocean_model","temp_merid_flux_gyre_pacific","temp_merid_flux_gyre_pacific"      ,"HISTORY/ocean_month","all",.true.,"none",2
 "ocean_model","salt_merid_flux_advect_pacific","salt_merid_flux_advect_pacific"  ,"HISTORY/ocean_month","all",.true.,"none",2
 "ocean_model","salt_merid_flux_over_pacific","salt_merid_flux_over_pacific"      ,"HISTORY/ocean_month","all",.true.,"none",2
 "ocean_model","salt_merid_flux_gyre_pacific","salt_merid_flux_gyre_pacific"      ,"HISTORY/ocean_month","all",.true.,"none",2
#
 "ocean_model","temp_merid_flux_advect_arctic","temp_merid_flux_advect_arctic"  ,"HISTORY/ocean_month","all",.true.,"none",2
 "ocean_model","temp_merid_flux_over_arctic","temp_merid_flux_over_arctic"      ,"HISTORY/ocean_month","all",.true.,"none",2
 "ocean_model","temp_merid_flux_gyre_arctic","temp_merid_flux_gyre_arctic"      ,"HISTORY/ocean_month","all",.true.,"none",2
 "ocean_model","salt_merid_flux_advect_arctic","salt_merid_flux_advect_arctic"  ,"HISTORY/ocean_month","all",.true.,"none",2
 "ocean_model","salt_merid_flux_over_arctic","salt_merid_flux_over_arctic"      ,"HISTORY/ocean_month","all",.true.,"none",2
 "ocean_model","salt_merid_flux_gyre_arctic","salt_merid_flux_gyre_arctic"      ,"HISTORY/ocean_month","all",.true.,"none",2
#
 "ocean_model","temp_merid_flux_advect_indian","temp_merid_flux_advect_indian"  ,"HISTORY/ocean_month","all",.true.,"none",2
 "ocean_model","temp_merid_flux_over_indian","temp_merid_flux_over_indian"      ,"HISTORY/ocean_month","all",.true.,"none",2
 "ocean_model","temp_merid_flux_gyre_indian","temp_merid_flux_gyre_indian"      ,"HISTORY/ocean_month","all",.true.,"none",2
 "ocean_model","salt_merid_flux_advect_indian","salt_merid_flux_advect_indian"  ,"HISTORY/ocean_month","all",.true.,"none",2
 "ocean_model","salt_merid_flux_over_indian","salt_merid_flux_over_indian"      ,"HISTORY/ocean_month","all",.true.,"none",2
 "ocean_model","salt_merid_flux_gyre_indian","salt_merid_flux_gyre_indian"      ,"HISTORY/ocean_month","all",.true.,"none",2
#
#==========================================================================
# WGOMD/CMIP5 Table 2.4
# all of these fields are time dependent scalar fields 
# they are all derived as a post-processing step using the
# vertically integrated mass transport contained in tx_trans and ty_trans 
#
#
#==========================================================================
# WGOMD/CMIP5 Table 2.5: surface water fluxes 
# all of these fields are time dependent two-dimensional fields
#
# Rosetta stone: lprec=rainfall_flux
 "ocean_model","lprec","lprec" ,"HISTORY/ocean_month","all",.true.,"none",2
#
# Rosetta stone: fprec=snowfall_flux
 "ocean_model","fprec","fprec" ,"HISTORY/ocean_month","all",.true.,"none",2
#
# Rosetta stone: evap=water_evaporation_flux
 "ocean_model","evap","evap" ,"HISTORY/ocean_month","all",.true.,"none",2
#
# Rosetta stone: runoff=water_flux_into_sea_water_from_rivers
 "ocean_model","runoff","runoff" ,"HISTORY/ocean_month","all",.true.,"none",2
#
# Rosetta stone: ice_calving=water_flux_into_sea_water_from_icebergs
 "ocean_model","ice_calving","ice_calving" ,"HISTORY/ocean_month","all",.true.,"none",2
#
# Rosetta stone: melt=water_flux_into_sea_water_due_to_sea_ice_thermodynamics
 "ocean_model","melt","melt" ,"HISTORY/ocean_month","all",.true.,"none",2
#
# Rosetta stone: pme_river=water_flux_into_sea_water
#                pme_river=water_flux_into_sea_water_without_flux_correction
 "ocean_model","pme_river","pme_river" ,"HISTORY/ocean_month","all",.true.,"none",2
#
# Rosetta stone: water_flux_correction = 0.0
#
#==========================================================================
# WGOMD/CMIP5 Table 2.6: surface salt fluxes 
# all of these fields are time dependent two-dimensional fields 
#
# Rosetta stone: all "virtual_salt_flux" fields are zero 
#
# Rosetta stone: sfc_salt_flux_ice=downward_sea_ice_basal_salt_flux
 "ocean_model","sfc_salt_flux_ice","sfc_salt_flux_ice" ,"HISTORY/ocean_month","all",.true.,"none",2
#
# Rosetta stone: sfc_salt_flux_runoff=salt_flux_into_sea_water_from_rivers
 "ocean_model","sfc_salt_flux_runoff","sfc_salt_flux_runoff" ,"HISTORY/ocean_month","all",.true.,"none",2
#
#
#==========================================================================
# WGOMD/CMIP5 Table 2.7: surface heat fluxes 
# all of these fields are time dependent two-dimensional fields 
#
# Rosetta stone: geo_heat=upward_geothermal_heat_flux_at_sea_floor
#"ocean_model","geo_heat","geo_heat" ,"HISTORY/ocean_month","all",.false.,"none",2
#
# Rosetta stone: sfc_hflux_from_water_prec=temperature_flux_due_to_rainfall_expressed_as_heat_flux_into_sea_water
 "ocean_model","sfc_hflux_from_water_prec","sfc_hflux_from_water_prec" ,"HISTORY/ocean_month","all",.true.,"none",2
#
# Rosetta stone: sfc_hflux_from_water_evap=temperature_flux_due_to_evaporation_expressed_as_heat_flux_into_sea_water
 "ocean_model","sfc_hflux_from_water_evap","sfc_hflux_from_water_evap" ,"HISTORY/ocean_month","all",.true.,"none",2
#
# Rosetta stone: sfc_hflux_from_runoff=temperature_flux_due_to_runoff_expressed_as_heat_flux_into_sea_water
 "ocean_model","sfc_hflux_from_runoff","sfc_hflux_from_runoff"  ,"HISTORY/ocean_month","all",.true.,"none",2

# Rosetta stone: sfc_hflux_from_calving=temperature_flux_due_to_icebergs_expressed_as_heat_flux_into_sea_water
"ocean_model","sfc_hflux_from_calving","sfc_hflux_from_calving","HISTORY/ocean_month","all",.true.,"none",2
#
# Rosetta stone: fprec_melt_heat=heat_flux_into_sea_water_due_to_snow_thermodynamics
 "ocean_model","fprec_melt_heat","fprec_melt_heat" ,"HISTORY/ocean_month","all",.true.,"none",2
#
# Rosetta stone: heat_flux_into_sea_water_due_to_sea_ice_thermodynamics
#                field is available from ice model as BHEAT 
#
# Rosetta stone: calving_melt_heat=heat_flux_into_sea_water_due_to_iceberg_thermodynamics
 "ocean_model","calving_melt_heat","calving_melt_heat" ,"HISTORY/ocean_month","all",.true.,"none",2
#
# Rosetta stone: lw_heat=surface_net_downward_longwave_flux
 "ocean_model","lw_heat","lw_heat" ,"HISTORY/ocean_month","all",.true.,"none",2
#
# Rosetta stone: evap_heat=surface_downward_latent_heat_flux
 "ocean_model","evap_heat","evap_heat" ,"HISTORY/ocean_month","all",.true.,"none",2
#
# Rosetta stone: sens_heat=surface_downward_sensible_heat_flux
 "ocean_model","sens_heat","sens_heat" ,"HISTORY/ocean_month","all",.true.,"none",2
#
# Rosetta stone: swflx=surface_net_downward_shortwave_flux
 "ocean_model","swflx","swflx" ,"HISTORY/ocean_month","all",.true.,"none",2
#
# Rosetta stone: sw_heat=downwelling_shortwave_flux_in_sea_water
 "ocean_model","sw_heat","sw_heat" ,"HISTORY/ocean_month","all",.true.,"none",2
#
# Rosetta stone: ehat_flux_correction = 0.0 
#
#==========================================================================
# WGOMD/CMIP5 Table 2.8: surface momentum fluxes 
# all of these fields are time dependent two-dimensional fields 
#
# Rosetta stone: tau_x=surface_downward_x_stress
 "ocean_model","tau_x","tau_x" ,"HISTORY/ocean_month","all",.true.,"none",2
#
# Rosetta stone: tau_y=surface_downward_y_stress
 "ocean_model","tau_y","tau_y" ,"HISTORY/ocean_month","all",.true.,"none",2
#
#
#==========================================================================
# WGOMD/CMIP5 Table 2.9: vertical SGS processes
#
# Rosetta stone: diff_cbt_t=ocean_vertical_heat_diffusivity
# "ocean_model","diff_cbt_t","diff_cbt_t" ,"HISTORY/ocean_month","all",.true.,"none",2
#
# Rosetta stone: diff_cbt_s=ocean_vertical_salt_diffusivity
# "ocean_model","diff_cbt_s","diff_cbt_s" ,"HISTORY/ocean_month","all",.true.,"none",2
#
# Rosetta stone: diff_cbt_back=ocean_vertical_tracer_diffusivity_due_to_background
# "ocean_model","diff_cbt_back","diff_cbt_back" ,"HISTORY/ocean_month","all",.false.,"none",2
#
# Rosetta stone: diff_cbt_tides=ocean_vertical_tracer_diffusivity_due_to_tides
# "ocean_model","diff_cbt_tides","diff_cbt_tides" ,"HISTORY/ocean_month","all",.true.,"none",2
#
# Rosetta stone: power_diss=tendency_of_ocean_potential_energy_content
# "ocean_model","power_diss","power_diss" ,"HISTORY/ocean_month","all",.true.,"none",2
#
# Rosetta stone: power_diss_tides=tendency_of_ocean_potential_energy_content_due_to_tides
# "ocean_model","power_diss_tides","power_diss_tides" ,"HISTORY/ocean_month","all",.true.,"none",2
#
# Rosetta stone: power_diss_back=tendency_of_ocean_potential_energy_content_due_to_background 
# "ocean_model","power_diss_back","power_diss_back"   ,"HISTORY/ocean_month","all",.true.,"none",2
#
# Rosetta stone: visc_cbu=ocean_vertical_momentum_diffusivity
# "ocean_model","visc_cbu","visc_cbu" ,"HISTORY/ocean_month","all",.true.,"none",2
#
# Rosetta stone: visc_cbu_back=ocean_vertical_momentum_diffusivity_due_to_background
# "ocean_model","visc_cbu_back","visc_cbu_back" ,"HISTORY/ocean_month","all",.true.,"none",2
#
# Rosetta stone: visc_cbu_tides=ocean_vertical_momentum_diffusivity_due_to_tides
# "ocean_model","visc_cbu_tides","visc_cbu_tides" ,"HISTORY/ocean_month","all",.true.,"none",2
#
# Rosetta stone: ocean_vertical_momentum_diffusivity_due_to_form_drag=0.0
#
# Rosetta stone: vert_lap_diss=ocean_kinetic_energy_dissipation_per_unit_area_due_to_vertical_friction
# "ocean_model","vert_lap_diss","vert_lap_diss" ,"HISTORY/ocean_month","all",.true.,"none",2
#
#
#==========================================================================
# WGOMD/CMIP5 Table 2.10: lateral SGS processes
#
# Rosetta stone: agm=ocean_tracer_bolus_laplacian_diffusivity
# "ocean_model","agm","agm" ,"HISTORY/ocean_month","all",.true.,"none",2
#
# Rosetta stone: ocean_tracer_bolus_biharmonic_diffusivity = 0.0
#
# Rosetta stone: aredi=ocean_tracer_epineutral_laplacian_diffusivity
# "ocean_model","aredi","aredi" ,"HISTORY/ocean_month","all",.true.,"none",2
#
# Rosetta stone: ocean_tracer_epineutral_biharmonic_diffusivity=0.0
#
# Rosetta stone: ocean_tracer_xy_laplacian_diffusivity = 0.0
#
# Rosetta stone: ocean_tracer_xy_biharmonic_diffusivity = 0.0
#
# Rosetta stone: gm_eddy_ke_source=tendency_of_ocean_eddy_kinetic_energy_content_due_to_bolus_transport
# "ocean_model","gm_eddy_ke_source","gm_eddy_ke_source" ,"HISTORY/ocean_month","all",.true.,"none",2
#
# Rosetta stone: aiso_lap=ocean_momentum_xy_laplacian_diffusivity
# "ocean_model","aiso_lap","aiso_lap" ,"HISTORY/ocean_month","all",.true.,"none",2
#
# Rosetta stone: aiso_bih=ocean_momentum_xy_biharmonic_diffusivity
# "ocean_model","aiso_bih","aiso_bih" ,"HISTORY/ocean_month","all",.true.,"none",2
#
# Rosetta stone: ocean_kinetic_energy_dissipation_per_unit_area_due_to_xy_friction is
# diagnosed from the sum of the following two fields 
# "ocean_model","horz_lap_diss","horz_lap_diss" ,"HISTORY/ocean_month",all,.true.,"none",2
# "ocean_model","horz_bih_diss","horz_bih_diss" ,"HISTORY/ocean_month",all,.true.,"none",2
#
#==========================================================================
#
# The following represent extra fields that have been of use for
# GFDL analysis.  They are not part of CMIP5 requests 
#
#==========================================================================
# surface flux quantities
 "ocean_model","frazil_2d","frazil_2d"                                      ,"HISTORY/ocean_month","all",.true.,"none",2
 "ocean_model","pme_velocity","pme"                                         ,"HISTORY/ocean_month","all",.true.,"none",2
 "ocean_model","pme_sbc","pme_mass"                                         ,"HISTORY/ocean_month","all",.true.,"none",2
 "ocean_model","river","river"                                              ,"HISTORY/ocean_month","all",.true.,"none",2
 "ocean_model","swflx_vis","swflx_vis"                                      ,"HISTORY/ocean_month","all",.true.,"none",2
 "ocean_model","sw_frac","sw_frac"                                          ,"HISTORY/ocean_month","all",.true.,"none",2
 "ocean_model","f_vis","f_vis"                                              ,"HISTORY/ocean_month","all",.true.,"none",2
 "ocean_model","sfc_hflux_coupler","sfc_hflux_coupler"                      ,"HISTORY/ocean_month","all",.true.,"none",2
 "ocean_model","sfc_hflux_pme","sfc_hflux_pme"                              ,"HISTORY/ocean_month","all",.true.,"none",2
 "ocean_model","tau_curl","tau_curl"                                        ,"HISTORY/ocean_month","all",.true.,"none",2
 "ocean_model","ekman_we","ekman_we"                                        ,"HISTORY/ocean_month","all",.true.,"none",2
 "ocean_model","salt_calvingmix","salt_calvingmix"                          ,"HISTORY/ocean_month","all",.true.,"none",2
 "ocean_model","temp_calvingmix","temp_calvingmix"                          ,"HISTORY/ocean_month","all",.true.,"none",2
 "ocean_model","temp_runoffmix","temp_runoffmix"                            ,"HISTORY/ocean_month","all",.true.,"none",2
 "ocean_model","temp_rivermix","temp_rivermix"                              ,"HISTORY/ocean_month","all",.true.,"none",2
 "ocean_model","temp_runoff","temp_runoff"                                  ,"HISTORY/ocean_month","all",.true.,"none",2
 "ocean_model","temp_calving","temp_calving"                                ,"HISTORY/ocean_month","all",.true.,"none",2
#==========================================================================
#ice melt/form associated waterflux:
#dhb599: melt=water_flux_into_sea_water_due_to_sea_ice_melting
 "ocean_model","wfimelt","wfimelt"                                          ,"HISTORY/ocean_month","all",.true.,"none",2
#dhb599: form=water_flux_outof_sea_water_due_to_sea_ice_forming
 "ocean_model","wfiform","wfiform"                                          ,"HISTORY/ocean_month","all",.true.,"none",2
#
#==========================================================================
# global integrated ocean surface fluxes
"ocean_model","total_ocean_pme_river","total_ocean_pme_river"                ,"HISTORY/ocean_scalar","all",.true.,"none",2
"ocean_model","total_ocean_river","total_ocean_river"                        ,"HISTORY/ocean_scalar","all",.true.,"none",2
"ocean_model","total_ocean_evap","total_ocean_evap"                          ,"HISTORY/ocean_scalar","all",.true.,"none",2
"ocean_model","total_ocean_pme_sbc","total_ocean_pme_sbc"                    ,"HISTORY/ocean_scalar","all",.true.,"none",2
"ocean_model","total_ocean_fprec","total_ocean_fprec"                        ,"HISTORY/ocean_scalar","all",.true.,"none",2
"ocean_model","total_ocean_lprec","total_ocean_lprec"                        ,"HISTORY/ocean_scalar","all",.true.,"none",2
"ocean_model","total_ocean_calving","total_ocean_calving"                    ,"HISTORY/ocean_scalar","all",.true.,"none",2
"ocean_model","total_ocean_runoff","total_ocean_runoff"                      ,"HISTORY/ocean_scalar","all",.true.,"none",2
"ocean_model","total_ocean_salt","total_ocean_salt"                          ,"HISTORY/ocean_scalar","all",.true.,"none",2
"ocean_model","total_ocean_heat","total_ocean_heat"                          ,"HISTORY/ocean_scalar","all",.true.,"none",2
"ocean_model","total_ocean_hflux_pme","total_ocean_hflux_pme"                ,"HISTORY/ocean_scalar","all",.true.,"none",2
"ocean_model","total_ocean_swflx","total_ocean_swflx"                        ,"HISTORY/ocean_scalar","all",.true.,"none",2
"ocean_model","total_ocean_swflx_vis","total_ocean_swflx_vis"                ,"HISTORY/ocean_scalar","all",.true.,"none",2
"ocean_model","total_ocean_evap_heat","total_ocean_evap_heat"                ,"HISTORY/ocean_scalar","all",.true.,"none",2
"ocean_model","total_ocean_lw_heat","total_ocean_lw_heat"                    ,"HISTORY/ocean_scalar","all",.true.,"none",2
"ocean_model","total_ocean_sens_heat","total_ocean_sens_heat"                ,"HISTORY/ocean_scalar","all",.true.,"none",2
"ocean_model","total_ocean_fprec_melt_heat","total_ocean_fprec_melt_heat"    ,"HISTORY/ocean_scalar","all",.true.,"none",2
"ocean_model","total_ocean_calving_heat","total_ocean_calving_heat"          ,"HISTORY/ocean_scalar","all",.true.,"none",2
"ocean_model","total_ocean_calving_melt_heat","total_ocean_calving_melt_heat","HISTORY/ocean_scalar","all",.true.,"none",2
"ocean_model","total_ocean_runoff_heat","total_ocean_runoff_heat"            ,"HISTORY/ocean_scalar","all",.true.,"none",2
#